Circuit: * C:\Users\Amogelang\Desktop\Draft1.asc

Direct Newton iteration for .op point succeeded.
Heightened Def Con from 0.0003901 to 0.000390102
Heightened Def Con from 0.0070301 to 0.0070301

Date: Wed Apr 03 15:06:05 2019
Total elapsed time: 65.708 seconds.

tnom = 27
temp = 27
method = modified trap
totiter = 7391470
traniter = 7391462
tranpoints = 2228934
accept = 1616103
rejected = 612833
matrix size = 14
fillins = 4
solver = Normal
Matrix Compiler1: 778 bytes object code size  0.7/0.5/[0.4]
Matrix Compiler2: 1.04 KB object code size  0.3/0.6/[0.2]

